
**** 03/20/17 15:49:44 ****** PSpice Lite (October 2012) ****** ID# 10813 ****

 ** Profile: "SCHEMATIC1-Basic Transient"  [ C:\Users\xdsarkar\Desktop\MemristorSimulations\Basic-PSpiceFiles\SCHEMATIC1\Basic Transi


 ****     CIRCUIT DESCRIPTION


******************************************************************************




** Creating circuit file "Basic Transient.cir" 
** WARNING: THIS AUTOMATICALLY GENERATED FILE MAY BE OVERWRITTEN BY SUBSEQUENT SIMULATIONS

*Libraries: 
* Profile Libraries :
* Local Libraries :
* From [PSPICE NETLIST] section of C:\Users\xdsarkar\AppData\Roaming\SPB_16.6\cdssetup\OrCAD_PSpice/16.6.0/PSpice.ini file:
.lib "nomd.lib" 

*Analysis directives: 
.TRAN  0 100m 0 1u 
.OPTIONS ADVCONV
.PROBE64 V(alias(*)) I(alias(*)) W(alias(*)) D(alias(*)) NOISE(alias(*)) 
.INC "..\SCHEMATIC1.net" 



**** INCLUDING SCHEMATIC1.net ****
* source BASIC
X_M1         INPUT OUTPUT STATE MEMRISTOR
R_R1         OUTPUT 0  1k TC=0,0 
R_R2         STATE N00164  1G TC=0,0 
V_V1         N00164 0 0.5Vdc
V_V2         INPUT 0  
+SIN 0 1Vdc 500Hz 0 0 0

**** RESUMING "Basic Transient.cir" ****
.END

ERROR(ORPSIM-15108): Subcircuit MEMRISTOR used by X_M1 is undefined
