
**** 03/22/17 23:33:12 ****** PSpice Lite (October 2012) ****** ID# 10813 ****

 ** Profile: "SCHEMATIC1-basic"  [ C:\Users\xdsarkar\Desktop\MemristorSimulations\Logic Gates-PSpiceFiles\SCHEMATIC1\basic.sim ] 


 ****     CIRCUIT DESCRIPTION


******************************************************************************




** Creating circuit file "basic.cir" 
** WARNING: THIS AUTOMATICALLY GENERATED FILE MAY BE OVERWRITTEN BY SUBSEQUENT SIMULATIONS

*Libraries: 
* Profile Libraries :
* Local Libraries :
.LIB "C:/OrCAD/OrCAD_16.6_Lite/tools/capture/library/pspice/memristor.lib" 
* From [PSPICE NETLIST] section of C:\Users\xdsarkar\AppData\Roaming\SPB_16.6\cdssetup\OrCAD_PSpice/16.6.0/PSpice.ini file:
.lib "nomd.lib" 

*Analysis directives: 
.TRAN  0 100m 0 1u 
.OPTIONS ADVCONV
.PROBE64 V(alias(*)) I(alias(*)) W(alias(*)) D(alias(*)) NOISE(alias(*)) 
.INC "..\SCHEMATIC1.net" 



**** INCLUDING SCHEMATIC1.net ****
* source LOGIC GATES
X_M1         INPUT N00102 N05933 MEMRISTOR
X_M2         N00102 N00106 N05941 MEMRISTOR
X_M3         N00106 OUTPUT OUT1 MEMRISTOR
R_R3         OUT1 N00357  1G TC=0,0 
V_V3         N00357 0 0.5Vdc
R_R4         OUTPUT 0  1k TC=0,0 
V_V13         N05937 0 0.5Vdc
V_V14         N05945 0 0.5Vdc
V_V15         INPUT 0 1.5Vdc
R_R5         N05933 N05937  1G TC=0,0 
R_R6         N05941 N05945  1G TC=0,0 
V_V16         VCOND 0 0.5Vdc
V_V17         VCOND 0 1.2Vdc
R_R7         0 VCOND  1k TC=0,0 
X_M4         VCOND VCOND STATE MEMRISTOR
X_M5         VCOND VCOND STATE MEMRISTOR
V_V1         N06763 0 0.5Vdc
R_R2         STATE N06763  1G TC=0,0 
R_R8         STATE N06963  1G TC=0,0 
V_V18         N06963 0 0.5Vdc

**** RESUMING basic.cir ****
.END

ERROR(ORPSIM-15143): Voltage source and/or inductor loop involving V_V17. You may break the loop by adding a series resistance
