
**** 03/20/17 19:21:42 ****** PSpice Lite (October 2012) ****** ID# 10813 ****

 ** Profile: "SCHEMATIC1-Trans"  [ C:\Users\xdsarkar\Desktop\MemristorSimulations\Logic Gates-PSpiceFiles\SCHEMATIC1\Trans.sim ] 


 ****     CIRCUIT DESCRIPTION


******************************************************************************




** Creating circuit file "Trans.cir" 
** WARNING: THIS AUTOMATICALLY GENERATED FILE MAY BE OVERWRITTEN BY SUBSEQUENT SIMULATIONS

*Libraries: 
* Profile Libraries :
* Local Libraries :
* From [PSPICE NETLIST] section of C:\Users\xdsarkar\AppData\Roaming\SPB_16.6\cdssetup\OrCAD_PSpice/16.6.0/PSpice.ini file:
.lib "nomd.lib" 

*Analysis directives: 
.TRAN  0 100m 0 1u 
.OPTIONS ADVCONV
.PROBE64 V(alias(*)) I(alias(*)) W(alias(*)) D(alias(*)) NOISE(alias(*)) 
.INC "..\SCHEMATIC1.net" 



**** INCLUDING SCHEMATIC1.net ****
* source LOGIC GATES
X_M1         INPUT N00102 IN1 MEMRISTOR
X_M2         N00102 N00106 IN2 MEMRISTOR
X_M3         N00106 OUTPUT OUT1 MEMRISTOR
R_R1         IN1 N00349  1G TC=0,0 
R_R2         IN2 N00353  1G TC=0,0 
R_R3         OUT1 N00357  1G TC=0,0 
V_V1         N00349 0 0Vdc
V_V2         N00353 0 1Vdc
V_V3         N00357 0 0.5Vdc
R_R4         OUTPUT 0  1k TC=0,0 
V_V4         INPUT 0  
+SIN 0 1Vdc 500Hz 0 0 0

**** RESUMING Trans.cir ****
.END

ERROR(ORPSIM-15108): Subcircuit MEMRISTOR used by X_M1 is undefined

ERROR(ORPSIM-15108): Subcircuit MEMRISTOR used by X_M2 is undefined

ERROR(ORPSIM-15108): Subcircuit MEMRISTOR used by X_M3 is undefined
